Circuit: * C:\Users\pablo\OneDrive\Escritorio\Universidad\Analogica 1\Proyecto Uno\Proyecto Analogica\A10_AltaMFF_3.asc

Direct Newton iteration for .op point succeeded.

Date: Thu Nov 12 18:17:37 2020
Total elapsed time: 0.131 seconds.

tnom = 27
temp = 27
method = modified trap
totiter = 5136
traniter = 5127
tranpoints = 2200
accept = 1819
rejected = 381
matrix size = 13
fillins = 2
solver = Normal
Matrix Compiler1: 774 bytes object code size  0.2/0.1/[0.1]
Matrix Compiler2: 1.17 KB object code size  0.1/0.2/[0.1]

