Circuit: * C:\Users\pablo\OneDrive\Escritorio\Universidad\Analogica 1\Proyecto Uno\Proyecto Analogica\Filtros\A10_AltaMFF_3.asc

Direct Newton iteration for .op point succeeded.

Date: Fri Nov 13 14:36:56 2020
Total elapsed time: 0.105 seconds.

tnom = 27
temp = 27
method = modified trap
totiter = 4136
traniter = 4127
tranpoints = 2021
accept = 1682
rejected = 339
matrix size = 13
fillins = 1
solver = Normal
Matrix Compiler1: 702 bytes object code size  0.2/0.4/[0.1]
Matrix Compiler2: 1.16 KB object code size  0.2/0.5/[0.1]

