Circuit: * C:\Users\pablo\OneDrive\Escritorio\Universidad\Analogica 1\Proyecto Uno\Proyecto Analogica\Filtros\A11_Notch_Pasivo.asc

WARNING: Less than two connections to node VCC.  This node is used by V1.
WARNING: Less than two connections to node -VCC.  This node is used by V2.
.OP point found by inspection.

Date: Fri Nov 13 14:37:41 2020
Total elapsed time: 0.051 seconds.

tnom = 27
temp = 27
method = modified trap
totiter = 4854
traniter = 4854
tranpoints = 2428
accept = 2426
rejected = 2
matrix size = 9
fillins = 0
solver = Normal
Matrix Compiler1: 242 bytes object code size  0.1/0.1/[0.0]
Matrix Compiler2: 505 bytes object code size  0.2/0.1/[0.1]

