Circuit: * C:\Users\pablo\OneDrive\Escritorio\Universidad\Analogica 1\Proyecto Uno\Proyecto Analogica\A11_Notch_Pasivo.asc

WARNING: Less than two connections to node VCC.  This node is used by V1.
WARNING: Less than two connections to node -VCC.  This node is used by V2.
.OP point found by inspection.

Date: Thu Nov 12 18:22:16 2020
Total elapsed time: 0.064 seconds.

tnom = 27
temp = 27
method = modified trap
totiter = 4870
traniter = 4870
tranpoints = 2436
accept = 2434
rejected = 2
matrix size = 9
fillins = 1
solver = Normal
Matrix Compiler1: 332 bytes object code size  0.1/0.1/[0.0]
Matrix Compiler2: 507 bytes object code size  0.1/0.2/[0.1]

