Circuit: * C:\Users\pablo\OneDrive\Escritorio\Universidad\Analogica 1\Proyecto Uno\Proyecto Analogica\A12_Notch_Activo.asc

Direct Newton iteration for .op point succeeded.

Date: Thu Nov 12 18:27:28 2020
Total elapsed time: 0.318 seconds.

tnom = 27
temp = 27
method = modified trap
totiter = 11661
traniter = 11653
tranpoints = 5806
accept = 4992
rejected = 814
matrix size = 17
fillins = 24
solver = Normal
Thread vector: 15.0/9.3[2] 2.6/3.5[1] 2.7/4.3[1] 0.2/2.1[1]  2592/500
Matrix Compiler1: 2.25 KB object code size  1.0/0.4/[0.2]
Matrix Compiler2: 2.34 KB object code size  0.4/0.4/[0.2]

