Circuit: * C:\Users\pablo\OneDrive\Escritorio\Universidad\Analogica 1\Proyecto Uno\Proyecto Analogica\Filtros\A12_Notch_Activo.asc

Direct Newton iteration for .op point succeeded.

Date: Fri Nov 13 14:38:29 2020
Total elapsed time: 0.258 seconds.

tnom = 27
temp = 27
method = modified trap
totiter = 7575
traniter = 7566
tranpoints = 3758
accept = 3584
rejected = 174
matrix size = 17
fillins = 21
solver = Normal
Thread vector: 18.1/13.3[2] 3.3/4.2[1] 3.3/3.4[1] 0.3/1.8[1]  2592/500
Matrix Compiler1: 2.06 KB object code size  1.1/0.5/[0.2]
Matrix Compiler2: 2.28 KB object code size  0.5/0.6/[0.2]

