Circuit: * C:\Users\pablo\OneDrive\Escritorio\Universidad\Analogica 1\Proyecto Uno\Proyecto Analogica\Filtros\A1_Baja_1.asc

Direct Newton iteration for .op point succeeded.

Date: Fri Nov 13 14:27:26 2020
Total elapsed time: 0.129 seconds.

tnom = 27
temp = 27
method = modified trap
totiter = 2032
traniter = 2023
tranpoints = 992
accept = 972
rejected = 20
matrix size = 11
fillins = 1
solver = Normal
Matrix Compiler1: 494 bytes object code size  0.3/0.3/[0.2]
Matrix Compiler2: 1023 bytes object code size  0.3/0.6/[0.2]

