Circuit: * C:\Users\pablo\OneDrive\Escritorio\Universidad\Analogica 1\Proyecto Uno\Proyecto Analogica\A1_Baja_1.asc

Direct Newton iteration for .op point succeeded.

Date: Fri Nov 13 00:17:48 2020
Total elapsed time: 0.166 seconds.

tnom = 27
temp = 27
method = modified trap
totiter = 2538
traniter = 2530
tranpoints = 1243
accept = 1204
rejected = 39
matrix size = 11
fillins = 1
solver = Normal
Matrix Compiler1: 494 bytes object code size  0.4/0.4/[0.2]
Matrix Compiler2: 1023 bytes object code size  0.3/0.6/[0.2]

