Circuit: * C:\Users\pablo\OneDrive\Escritorio\Universidad\Analogica 1\Proyecto Uno\Proyecto Analogica\A2_Alta_1.asc

Direct Newton iteration for .op point succeeded.

Date: Thu Nov 12 17:32:19 2020
Total elapsed time: 2.257 seconds.

tnom = 27
temp = 27
method = modified trap
totiter = 90448
traniter = 90439
tranpoints = 45210
accept = 45209
rejected = 1
matrix size = 12
fillins = 1
solver = Normal
Matrix Compiler1: 544 bytes object code size  0.3/0.2/[0.1]
Matrix Compiler2: 1.07 KB object code size  0.2/0.3/[0.1]

