Circuit: * C:\Users\pablo\OneDrive\Escritorio\Universidad\Analogica 1\Proyecto Uno\Proyecto Analogica\Filtros\A3_BajaSK_2.asc

Direct Newton iteration for .op point succeeded.

Date: Fri Nov 13 14:30:12 2020
Total elapsed time: 0.346 seconds.

tnom = 27
temp = 27
method = modified trap
totiter = 17786
traniter = 17777
tranpoints = 8873
accept = 8864
rejected = 9
matrix size = 12
fillins = 1
solver = Normal
Matrix Compiler1: 688 bytes object code size  0.6/0.2/[0.1]
Matrix Compiler2: 1.11 KB object code size  0.2/0.3/[0.2]

