Circuit: * C:\Users\pablo\OneDrive\Escritorio\Universidad\Analogica 1\Proyecto Uno\Proyecto Analogica\A3_BajaSK_2.asc

Direct Newton iteration for .op point succeeded.

Date: Thu Nov 12 17:40:51 2020
Total elapsed time: 0.241 seconds.

tnom = 27
temp = 27
method = modified trap
totiter = 17783
traniter = 17774
tranpoints = 8872
accept = 8862
rejected = 10
matrix size = 12
fillins = 1
solver = Normal
Matrix Compiler1: 688 bytes object code size  0.2/0.2/[0.1]
Matrix Compiler2: 1.11 KB object code size  0.1/0.3/[0.1]

