Circuit: * C:\Users\pablo\OneDrive\Escritorio\Universidad\Analogica 1\Proyecto Uno\Proyecto Analogica\A4_AltaSK_2.asc

Direct Newton iteration for .op point succeeded.

Date: Fri Nov 13 00:34:36 2020
Total elapsed time: 0.198 seconds.

tnom = 27
temp = 27
method = modified trap
totiter = 3692
traniter = 3683
tranpoints = 1822
accept = 1580
rejected = 242
matrix size = 12
fillins = 2
solver = Normal
Matrix Compiler1: 760 bytes object code size  0.4/0.2/[0.2]
Matrix Compiler2: 1.11 KB object code size  0.3/0.3/[0.2]

