Circuit: * C:\Users\pablo\OneDrive\Escritorio\Universidad\Analogica 1\Proyecto Uno\Proyecto Analogica\Filtros\A4_AltaSK_2.asc

Direct Newton iteration for .op point succeeded.

Date: Fri Nov 13 14:31:04 2020
Total elapsed time: 0.090 seconds.

tnom = 27
temp = 27
method = modified trap
totiter = 2500
traniter = 2491
tranpoints = 1226
accept = 1176
rejected = 50
matrix size = 12
fillins = 2
solver = Normal
Matrix Compiler1: 760 bytes object code size  0.9/0.3/[0.1]
Matrix Compiler2: 1.11 KB object code size  0.3/0.7/[0.2]

