Circuit: * C:\Users\pablo\OneDrive\Escritorio\Universidad\Analogica 1\Proyecto Uno\Proyecto Analogica\A5_BajaSK_3.asc

Direct Newton iteration for .op point succeeded.

Date: Thu Nov 12 22:11:09 2020
Total elapsed time: 0.568 seconds.

tnom = 27
temp = 27
method = modified trap
totiter = 1983
traniter = 1974
tranpoints = 967
accept = 947
rejected = 20
matrix size = 13
fillins = 1
solver = Normal
Matrix Compiler1: 738 bytes object code size  0.5/0.3/[0.2]
Matrix Compiler2: 1.18 KB object code size  0.4/0.4/[0.2]

