Circuit: * C:\Users\pablo\OneDrive\Escritorio\Universidad\Analogica 1\Proyecto Uno\Proyecto Analogica\A6_AltaSK_3.asc

Direct Newton iteration for .op point succeeded.

Date: Thu Nov 12 22:19:17 2020
Total elapsed time: 0.559 seconds.

tnom = 27
temp = 27
method = modified trap
totiter = 5856
traniter = 5847
tranpoints = 2908
accept = 2636
rejected = 272
matrix size = 13
fillins = 3
solver = Normal
Matrix Compiler1: 846 bytes object code size  0.7/0.7/[0.2]
Matrix Compiler2: 1.19 KB object code size  0.5/1.1/[0.2]

