Circuit: * C:\Users\pablo\OneDrive\Escritorio\Universidad\Analogica 1\Proyecto Uno\Proyecto Analogica\Filtros\A6_AltaSK_3.asc

Direct Newton iteration for .op point succeeded.

Date: Fri Nov 13 14:33:11 2020
Total elapsed time: 0.156 seconds.

tnom = 27
temp = 27
method = modified trap
totiter = 4685
traniter = 4676
tranpoints = 2318
accept = 2246
rejected = 72
matrix size = 13
fillins = 3
solver = Normal
Matrix Compiler1: 828 bytes object code size  0.3/0.2/[0.1]
Matrix Compiler2: off  [0.2]/0.3/0.2

