Circuit: * C:\Users\pablo\OneDrive\Escritorio\Universidad\Analogica 1\Proyecto Uno\Proyecto Analogica\A7_BajaMFF_2.asc

Direct Newton iteration for .op point succeeded.

Date: Thu Nov 12 18:02:48 2020
Total elapsed time: 0.347 seconds.

tnom = 27
temp = 27
method = modified trap
totiter = 22480
traniter = 22472
tranpoints = 11217
accept = 11196
rejected = 21
matrix size = 12
fillins = 1
solver = Normal
Matrix Compiler1: 652 bytes object code size  0.3/0.1/[0.1]
Matrix Compiler2: 1.09 KB object code size  0.2/0.3/[0.1]

