Circuit: * C:\Users\pablo\OneDrive\Escritorio\Universidad\Analogica 1\Proyecto Uno\Proyecto Analogica\Filtros\A7_BajaMFF_2.asc

Direct Newton iteration for .op point succeeded.

Date: Fri Nov 13 14:34:10 2020
Total elapsed time: 0.355 seconds.

tnom = 27
temp = 27
method = modified trap
totiter = 22388
traniter = 22379
tranpoints = 11166
accept = 11144
rejected = 22
matrix size = 12
fillins = 1
solver = Normal
Matrix Compiler1: 652 bytes object code size  0.3/0.2/[0.1]
Matrix Compiler2: 1.09 KB object code size  0.2/0.3/[0.2]

