Circuit: * C:\Users\pablo\OneDrive\Escritorio\Universidad\Analogica 1\Proyecto Uno\Proyecto Analogica\A8_AltaMFF_2.asc

Direct Newton iteration for .op point succeeded.

Date: Thu Nov 12 22:07:25 2020
Total elapsed time: 0.313 seconds.

tnom = 27
temp = 27
method = modified trap
totiter = 6847
traniter = 6838
tranpoints = 3121
accept = 2700
rejected = 421
matrix size = 12
fillins = 1
solver = Normal
Matrix Compiler1: 688 bytes object code size  0.5/0.7/[0.4]
Matrix Compiler2: off  [0.3]/1.4/0.4

