Circuit: * C:\Users\pablo\OneDrive\Escritorio\Universidad\Analogica 1\Proyecto Uno\Proyecto Analogica\Filtros\A8_AltaMFF_2.asc

Direct Newton iteration for .op point succeeded.

Date: Fri Nov 13 14:35:06 2020
Total elapsed time: 0.131 seconds.

tnom = 27
temp = 27
method = modified trap
totiter = 5813
traniter = 5804
tranpoints = 2846
accept = 2516
rejected = 330
matrix size = 12
fillins = 1
solver = Normal
Matrix Compiler1: 688 bytes object code size  0.2/0.1/[0.1]
Matrix Compiler2: 1.08 KB object code size  0.1/0.2/[0.1]

