Circuit: * C:\Users\pablo\OneDrive\Escritorio\Universidad\Analogica 1\Proyecto Uno\Proyecto Analogica\Filtros\A9_BajaMFF_3.asc

Direct Newton iteration for .op point succeeded.

Date: Fri Nov 13 14:36:05 2020
Total elapsed time: 0.187 seconds.

tnom = 27
temp = 27
method = modified trap
totiter = 11300
traniter = 11291
tranpoints = 5622
accept = 5602
rejected = 20
matrix size = 13
fillins = 1
solver = Normal
Matrix Compiler1: 702 bytes object code size  0.3/0.3/[0.2]
Matrix Compiler2: 1.16 KB object code size  0.2/0.7/[0.2]

