Circuit: * C:\Users\pablo\OneDrive\Escritorio\Universidad\Analogica 1\Proyecto Uno\Proyecto Analogica\Draft4.asc

Direct Newton iteration for .op point succeeded.

Date: Tue Sep 29 23:20:35 2020
Total elapsed time: 0.140 seconds.

tnom = 27
temp = 27
method = modified trap
totiter = 578
traniter = 569
tranpoints = 219
accept = 158
rejected = 61
matrix size = 12
fillins = 1
solver = Normal
Matrix Compiler1: 688 bytes object code size  0.3/0.2/[0.1]
Matrix Compiler2: 1.11 KB object code size  0.2/0.3/[0.2]

