Circuit: * C:\Users\pablo\OneDrive\Escritorio\Universidad\Analogica 1\Proyecto Uno\Proyecto Analogica\Draft2.asc

Limiting rise time of source v3 to 2.04636e-013
Limiting fall time of source v3 to 2.04636e-013
Direct Newton iteration for .op point succeeded.

Date: Tue Sep 29 23:19:09 2020
Total elapsed time: 0.197 seconds.

tnom = 27
temp = 27
method = modified trap
totiter = 384
traniter = 372
tranpoints = 175
accept = 168
rejected = 7
matrix size = 12
fillins = 2
solver = Normal
Matrix Compiler1: 704 bytes object code size  0.3/0.2/[0.1]
Matrix Compiler2: 1.14 KB object code size  0.2/0.4/[0.2]

