Circuit: * C:\Users\pablo\OneDrive\Escritorio\Universidad\Analogica 1\Proyecto Uno\Proyecto Analogica\Draft5.asc

Direct Newton iteration for .op point succeeded.

Date: Thu Nov 12 23:18:21 2020
Total elapsed time: 0.201 seconds.

tnom = 27
temp = 27
method = trap
totiter = 8
traniter = 0
tranpoints = 0
accept = 0
rejected = 0
matrix size = 11
fillins = 2
solver = Normal
Matrix Compiler1:      32 opcodes
Matrix Compiler2: 1.01 KB object code size
